/*--------------------------------*- C++ -*----------------------------------*\
| =========                 |                                                 |
| \\      /  F ield         | foam-extend: Open Source CFD                    |
|  \\    /   O peration     | Version:     4.0                                |
|   \\  /    A nd           | Web:         http://www.foam-extend.org         |
|    \\/     M anipulation  |                                                 |
\*---------------------------------------------------------------------------*/
FoamFile
{
    version     2.0;
    format      ascii;
    class       dictionary;
    location    "system";
    object      fvSchemes;
}
// * * * * * * * * * * * * * * * * * * * * * * * * * * * * * * * * * * * * * //

ddtSchemes
{
    default         Euler;
}

gradSchemes
{
    default         Gauss linear;
    grad(U)         Gauss linear;
    grad(alpha1)    Gauss linear;
}

divSchemes
{
    div(rho*phi,U)  Gauss SFCD;
    div(phi,alpha)  Gauss vanLeer01;
    div(phirb,alpha) Gauss interfaceCompression;
    div(((rho*nuEff)*dev2(T(grad(U))))) Gauss linear;
    div(rhoPhi,U)  Gauss linearUpwind grad(U);
//    div(phi,alpha)  Gauss vanLeer;
//    div(phirb,alpha) Gauss linear;

}

laplacianSchemes
{
    default         Gauss linear corrected;
}

interpolationSchemes
{
    default         linear;
    limitedScheme   localMin;
}

snGradSchemes
{
    default         corrected;
}


// ************************************************************************* //
