/*--------------------------------*- C++ -*----------------------------------*\
| =========                 |                                                 |
| \\      /  F ield         | foam-extend: Open Source CFD                    |
|  \\    /   O peration     | Version:     4.0                               |
|   \\  /    A nd           | Web:         http://www.foam-extend.org         |
|    \\/     M anipulation  |                                                 |
\*---------------------------------------------------------------------------*/
FoamFile
{
    version     2.0;
    format      ascii;
    class       volScalarField;
    object      A;
}
// * * * * * * * * * * * * * * * * * * * * * * * * * * * * * * * * * * * * * //

dimensions      [0 -3 0 0 1 0 0];

internalField   uniform 0;

boundaryField
{
    inlet_A
    {
	type		fixedValue;
	value		uniform 0;
    }

    inlet_B
    {
	type		fixedValue;
	value		uniform 0.25;
    }

    frontAndBack
    {
	type		zeroGradient;
    }
	
    outlet
    {
        type            zeroGradient;
    }

    topAndBottom
    {
        type empty;

    }
}

// ************************************************************************* //
